/*---------------------------------------------------------------------------*\
  =========                 |
  \\      /  F ield         | OpenFOAM: The Open Source CFD Toolbox
   \\    /   O peration     | Website:  https://openfoam.org
    \\  /    A nd           | Version:  7
     \\/     M anipulation  |
\*---------------------------------------------------------------------------*/
Build  : 7
Exec   : blockMesh
Date   : Apr 28 2024
Time   : 13:26:34
Host   : "c201-018.frontera.tacc.utexas.edu"
PID    : 233248
I/O    : uncollated
Case   : /scratch1/09824/gkitt/My_OpenFOAM/7.0/run/openfoam-project/blockgen-32
nProcs : 1
sigFpe : Enabling floating point exception trapping (FOAM_SIGFPE).
fileModificationChecking : Monitoring run-time modified files using timeStampMaster (fileModificationSkew 10)
allowSystemOperations : Allowing user-supplied system call operations

// * * * * * * * * * * * * * * * * * * * * * * * * * * * * * * * * * * * * * //
Create time

Deleting polyMesh directory
    "/scratch1/09824/gkitt/My_OpenFOAM/7.0/run/openfoam-project/blockgen-32/constant/polyMesh"
Creating block mesh from
    "/scratch1/09824/gkitt/My_OpenFOAM/7.0/run/openfoam-project/blockgen-32/system/blockMeshDict"
Creating block edges
No non-planar block faces defined
Creating topology blocks
Creating topology patches

Creating block mesh topology

Check topology

	Basic statistics
		Number of internal faces : 36
		Number of boundary faces : 144
		Number of defined boundary faces : 144
		Number of undefined boundary faces : 0
	Checking patch -> block consistency

Creating block offsets
Creating merge list .

Creating polyMesh from blockMesh
Creating points with scale 1
    Block 0 cell size :
        i : 1.15096 .. 1.15096 1.15086 .. 1.15086 1.15096 .. 1.15096 1.15086 .. 1.15086 
        j : 0.00975452 0.00975499 .. 0.00975499 0.00975452 0.00975499 .. 0.00975499 
        k : 0.1
    Block 1 cell size :
        i : 1.15381 .. 1.15381 1.15352 .. 1.15352 1.15381 .. 1.15381 1.15352 
        j : 0.00937966 0.00938397 .. 0.00938397 0.00937966 0.00938397 .. 0.00938397 
        k : 0.1
    Block 2 cell size :
        i : 1.15843 .. 1.15843 1.15796 .. 1.15796 1.15843 .. 1.15843 1.15796 .. 1.15796 
        j : 0.00864434 0.00865668 .. 0.00865668 0.00864434 0.00865668 .. 0.00865668 
        k : 0.1
    Block 3 cell size :
        i : 1.16464 .. 1.16464 1.16402 1.16464 .. 1.16464 1.16402 .. 1.16402 
        j : 0.00757683 0.0076023 .. 0.0076023 0.00757683 0.0076023 .. 0.0076023 
        k : 0.1
    Block 4 cell size :
        i : 0.158427 0.159048 0.158427 0.159048 .. 0.159048 
        j : 0.00757683 .. 0.00757683 0.0076023 .. 0.0076023 0.00757683 .. 0.00757683 0.0076023 .. 0.0076023 
        k : 0.1
    Block 5 cell size :
        i : 0.153806 0.154268 0.153806 0.154268 
        j : 0.00864434 0.00865668 .. 0.00865668 0.00864434 0.00865668 .. 0.00865668 
        k : 0.1
    Block 6 cell size :
        i : 0.150961 .. 0.150961 0.151245 0.150961 .. 0.150961 0.151245 .. 0.151245 
        j : 0.00937966 .. 0.00937966 0.00938397 0.00937966 .. 0.00937966 0.00938397 .. 0.00938397 
        k : 0.1
    Block 7 cell size :
        i : 0.15 0.150096 .. 0.150096 0.15 0.150096 .. 0.150096 
        j : 0.00975452 0.00975499 0.00975452 0.00975499 .. 0.00975499 
        k : 0.1
    Block 8 cell size :
        i : 0.150961 .. 0.150961 0.150865 0.150961 .. 0.150961 0.150865 
        j : 0.00975452 .. 0.00975452 0.00975499 0.00975452 .. 0.00975452 0.00975499 .. 0.00975499 
        k : 0.1
    Block 9 cell size :
        i : 0.153806 0.153521 0.153806 0.153521 
        j : 0.00937966 0.00938397 0.00937966 0.00938397 .. 0.00938397 
        k : 0.1
    Block 10 cell size :
        i : 0.158427 0.157964 0.158427 0.157964 .. 0.157964 
        j : 0.00864434 .. 0.00864434 0.00865668 .. 0.00865668 0.00864434 .. 0.00864434 0.00865668 .. 0.00865668 
        k : 0.1
    Block 11 cell size :
        i : 0.164645 .. 0.164645 0.164023 .. 0.164023 0.164645 .. 0.164645 0.164023 .. 0.164023 
        j : 0.00757683 0.0076023 .. 0.0076023 0.00757683 0.0076023 .. 0.0076023 
        k : 0.1
    Block 12 cell size :
        i : 0.558427 0.559048 .. 0.559048 0.558427 0.559048 .. 0.559048 
        j : 0.00757683 0.0076023 .. 0.0076023 0.00757683 0.0076023 .. 0.0076023 
        k : 0.1
    Block 13 cell size :
        i : 0.553806 .. 0.553806 0.554268 .. 0.554268 0.553806 .. 0.553806 0.554268 .. 0.554268 
        j : 0.00864434 0.00865668 .. 0.00865668 0.00864434 0.00865668 .. 0.00865668 
        k : 0.1
    Block 14 cell size :
        i : 0.550961 .. 0.550961 0.551245 .. 0.551245 0.550961 .. 0.550961 0.551245 .. 0.551245 
        j : 0.00937966 0.00938397 .. 0.00938397 0.00937966 0.00938397 .. 0.00938397 
        k : 0.1
    Block 15 cell size :
        i : 0.55 .. 0.55 0.550096 .. 0.550096 0.55 .. 0.55 0.550096 .. 0.550096 
        j : 0.00975452 .. 0.00975452 0.00975499 0.00975452 .. 0.00975452 0.00975499 
        k : 0.1
    Block 16 cell size :
        i : 0.550961 .. 0.550961 0.550865 .. 0.550865 0.550961 .. 0.550961 0.550865 .. 0.550865 
        j : 0.00975452 0.00975499 .. 0.00975499 0.00975452 0.00975499 .. 0.00975499 
        k : 0.1
    Block 17 cell size :
        i : 0.553806 .. 0.553806 0.553521 .. 0.553521 0.553806 .. 0.553806 0.553521 .. 0.553521 
        j : 0.00937966 0.00938397 0.00937966 0.00938397 .. 0.00938397 
        k : 0.1
    Block 18 cell size :
        i : 0.558427 0.557964 .. 0.557964 0.558427 0.557964 .. 0.557964 
        j : 0.00864434 .. 0.00864434 0.00865668 0.00864434 .. 0.00864434 0.00865668 .. 0.00865668 
        k : 0.1
    Block 19 cell size :
        i : 0.564645 .. 0.564645 0.564023 .. 0.564023 0.564645 .. 0.564645 0.564023 .. 0.564023 
        j : 0.00757683 0.0076023 0.00757683 0.0076023 .. 0.0076023 
        k : 0.1
    Block 20 cell size :
        i : 0.158427 .. 0.158427 0.159048 .. 0.159048 0.158427 .. 0.158427 0.159048 .. 0.159048 
        j : 0.00757683 0.0076023 .. 0.0076023 0.00757683 0.0076023 .. 0.0076023 
        k : 0.1
    Block 21 cell size :
        i : 0.153806 .. 0.153806 0.154268 .. 0.154268 0.153806 .. 0.153806 0.154268 .. 0.154268 
        j : 0.00864434 .. 0.00864434 0.00865668 .. 0.00865668 0.00864434 .. 0.00864434 0.00865668 .. 0.00865668 
        k : 0.1
    Block 22 cell size :
        i : 0.150961 .. 0.150961 0.151245 .. 0.151245 0.150961 .. 0.150961 0.151245 .. 0.151245 
        j : 0.00937966 .. 0.00937966 0.00938397 0.00937966 .. 0.00937966 0.00938397 .. 0.00938397 
        k : 0.1
    Block 23 cell size :
        i : 0.15 .. 0.15 0.150096 .. 0.150096 0.15 .. 0.15 0.150096 .. 0.150096 
        j : 0.00975452 0.00975499 .. 0.00975499 0.00975452 0.00975499 .. 0.00975499 
        k : 0.1
    Block 24 cell size :
        i : 0.150961 .. 0.150961 0.150865 .. 0.150865 0.150961 .. 0.150961 0.150865 .. 0.150865 
        j : 0.00975452 0.00975499 0.00975452 0.00975499 
        k : 0.1
    Block 25 cell size :
        i : 0.153806 .. 0.153806 0.153521 .. 0.153521 0.153806 .. 0.153806 0.153521 .. 0.153521 
        j : 0.00937966 0.00938397 0.00937966 0.00938397 .. 0.00938397 
        k : 0.1
    Block 26 cell size :
        i : 0.158427 .. 0.158427 0.157964 .. 0.157964 0.158427 .. 0.158427 0.157964 .. 0.157964 
        j : 0.00864434 0.00865668 .. 0.00865668 0.00864434 0.00865668 .. 0.00865668 
        k : 0.1
    Block 27 cell size :
        i : 0.164645 .. 0.164645 0.164023 .. 0.164023 0.164645 .. 0.164645 0.164023 .. 0.164023 
        j : 0.00757683 0.0076023 .. 0.0076023 0.00757683 0.0076023 .. 0.0076023 
        k : 0.1
    Block 28 cell size :
        i : 1.15843 .. 1.15843 1.15905 .. 1.15905 1.15843 .. 1.15843 1.15905 
        j : 0.00757683 .. 0.00757683 0.0076023 .. 0.0076023 0.00757683 .. 0.00757683 0.0076023 .. 0.0076023 
        k : 0.1
    Block 29 cell size :
        i : 1.15381 .. 1.15381 1.15427 1.15381 .. 1.15381 1.15427 
        j : 0.00864434 .. 0.00864434 0.00865668 .. 0.00865668 0.00864434 .. 0.00864434 0.00865668 .. 0.00865668 
        k : 0.1
    Block 30 cell size :
        i : 1.15096 .. 1.15096 1.15125 .. 1.15125 1.15096 .. 1.15096 1.15125 .. 1.15125 
        j : 0.00937966 0.00938397 .. 0.00938397 0.00937966 0.00938397 .. 0.00938397 
        k : 0.1
    Block 31 cell size :
        i : 1.15 .. 1.15 1.1501 .. 1.1501 1.15 .. 1.15 1.1501 .. 1.1501 
        j : 0.00975452 .. 0.00975452 0.00975499 .. 0.00975499 0.00975452 .. 0.00975452 0.00975499 .. 0.00975499 
        k : 0.1
    Block 32 cell size :
        i : 0.564645 .. 0.564645
        j : 0.164645 .. 0.164645
        k : 0.1
    Block 33 cell size :
        i : 0.564645 .. 0.564645
        j : 0.164645
        k : 0.1
    Block 34 cell size :
        i : 1.16464 .. 1.16464
        j : 0.164645 .. 0.164645
        k : 0.1
    Block 35 cell size :
        i : 1.16464 .. 1.16464
        j : 0.164645 .. 0.164645
        k : 0.1
Creating cells
Creating patches

Writing polyMesh
----------------
Mesh Information
----------------
  boundingBox: (0 0 -0.05) (18 4 0.05)
  nPoints: 7920
  nCells: 3600
  nFaces: 14760
  nInternalFaces: 6840
----------------
Patches
----------------
  patch 0 (start: 6840 size: 100) name: inlet
  patch 1 (start: 6940 size: 100) name: outlet
  patch 2 (start: 7040 size: 320) name: polygon
  patch 3 (start: 7360 size: 3600) name: top
  patch 4 (start: 10960 size: 3600) name: bottom
  patch 5 (start: 14560 size: 200) name: outside

End

